tests/fuzzer/corpus_json/21_random_000.json
{
  "version": "1.0",
  "type": "input",
  "is_batch": false,
  "attributes": {},
  "data": {
    "node": [
      {
        "id": 0,
        "u_rated": 110000.0
      },
      {
        "id": 1,
        "u_rated": 110000.0
      },
      {
        "id": 2,
        "u_rated": 110000.0
      },
      {
        "id": 3,
        "u_rated": 110000.0
      },
      {
        "id": 4,
        "u_rated": 110000.0
      },
      {
        "id": 5,
        "u_rated": 110000.0
      },
      {
        "id": 6,
        "u_rated": 110000.0
      },
      {
        "id": 7,
        "u_rated": 110000.0
      },
      {
        "id": 8,
        "u_rated": 110000.0
      },
      {
        "id": 9,
        "u_rated": 110000.0
      },
      {
        "id": 10,
        "u_rated": 110000.0
      },
      {
        "id": 11,
        "u_rated": 110000.0
      },
      {
        "id": 12,
        "u_rated": 110000.0
      },
      {
        "id": 13,
        "u_rated": 110000.0
      },
      {
        "id": 14,
        "u_rated": 110000.0
      }
    ],
    "source": [
      {
        "id": 15,
        "node": 0,
        "status": 1,
        "u_ref": 0.9841143161661691,
        "u_ref_angle": 0.0,
        "sk": 757978607.5000085,
        "rx_ratio": 0.12945837514648167,
        "z01_ratio": 1.0
      }
    ],
    "line": [
      {
        "id": 16,
        "from_node": 0,
        "to_node": 1,
        "from_status": 1,
        "to_status": 1,
        "r1": 2.0246706872520717,
        "x1": 3.918992945173863,
        "c1": 3.0331272607892745e-07,
        "tan1": 0.0,
        "r0": 0.3,
        "x0": 0.3,
        "c0": 1e-09,
        "tan0": 0.0,
        "i_n": 481.8309846108323
      },
      {
        "id": 17,
        "from_node": 1,
        "to_node": 2,
        "from_status": 1,
        "to_status": 1,
        "r1": 2.916910197275156,
        "x1": 4.540564425976676,
        "c1": 5.046868558173903e-07,
        "tan1": 0.0,
        "r0": 0.3,
        "x0": 0.3,
        "c0": 1e-09,
        "tan0": 0.0,
        "i_n": 289.0194659557068
      },
      {
        "id": 18,
        "from_node": 2,
        "to_node": 3,
        "from_status": 1,
        "to_status": 1,
        "r1": 3.7790210207861197,
        "x1": 3.0918449833766584,
        "c1": 2.5050634136244053e-07,
        "tan1": 0.0,
        "r0": 0.3,
        "x0": 0.3,
        "c0": 1e-09,
        "tan0": 0.0,
        "i_n": 910.6487934085577
      },
      {
        "id": 19,
        "from_node": 3,
        "to_node": 4,
        "from_status": 1,
        "to_status": 1,
        "r1": 4.913927380188266,
        "x1": 4.051086179982947,
        "c1": 9.021659504395826e-07,
        "tan1": 0.0,
        "r0": 0.3,
        "x0": 0.3,
        "c0": 1e-09,
        "tan0": 0.0,
        "i_n": 317.0460936261393
      },
      {
        "id": 20,
        "from_node": 4,
        "to_node": 5,
        "from_status": 1,
        "to_status": 1,
        "r1": 3.649158741300643,
        "x1": 4.494191439839968,
        "c1": 6.839839319154412e-07,
        "tan1": 0.0,
        "r0": 0.3,
        "x0": 0.3,
        "c0": 1e-09,
        "tan0": 0.0,
        "i_n": 477.4212882981862
      },
      {
        "id": 21,
        "from_node": 5,
        "to_node": 6,
        "from_status": 1,
        "to_status": 1,
        "r1": 0.503506040341829,
        "x1": 2.1708591772689183,
        "c1": 6.108869734438016e-07,
        "tan1": 0.0,
        "r0": 0.3,
        "x0": 0.3,
        "c0": 1e-09,
        "tan0": 0.0,
        "i_n": 913.8809427055193
      },
      {
        "id": 22,
        "from_node": 6,
        "to_node": 7,
        "from_status": 1,
        "to_status": 1,
        "r1": 4.833031838853794,
        "x1": 2.385048882763585,
        "c1": 8.6530992777164e-07,
        "tan1": 0.0,
        "r0": 0.3,
        "x0": 0.3,
        "c0": 1e-09,
        "tan0": 0.0,
        "i_n": 267.8873872880398
      },
      {
        "id": 23,
        "from_node": 7,
        "to_node": 8,
        "from_status": 1,
        "to_status": 1,
        "r1": 4.025139135065111,
        "x1": 2.7434965191779463,
        "c1": 1.4041700164018955e-08,
        "tan1": 0.0,
        "r0": 0.3,
        "x0": 0.3,
        "c0": 1e-09,
        "tan0": 0.0,
        "i_n": 722.5076395399146
      },
      {
        "id": 24,
        "from_node": 8,
        "to_node": 9,
        "from_status": 1,
        "to_status": 1,
        "r1": 1.9941177111213437,
        "x1": 4.124224885741165,
        "c1": 6.681532012318508e-07,
        "tan1": 0.0,
        "r0": 0.3,
        "x0": 0.3,
        "c0": 1e-09,
        "tan0": 0.0,
        "i_n": 11.131391121283995
      },
      {
        "id": 25,
        "from_node": 9,
        "to_node": 10,
        "from_status": 1,
        "to_status": 1,
        "r1": 2.467889332326623,
        "x1": 4.338013877463904,
        "c1": 2.43910876887132e-07,
        "tan1": 0.0,
        "r0": 0.3,
        "x0": 0.3,
        "c0": 1e-09,
        "tan0": 0.0,
        "i_n": 331.9523191199162
      },
      {
        "id": 26,
        "from_node": 10,
        "to_node": 11,
        "from_status": 1,
        "to_status": 1,
        "r1": 4.352356160543273,
        "x1": 0.9553354575119527,
        "c1": 5.675107406206718e-07,
        "tan1": 0.0,
        "r0": 0.3,
        "x0": 0.3,
        "c0": 1e-09,
        "tan0": 0.0,
        "i_n": 246.22976932906798
      },
      {
        "id": 27,
        "from_node": 11,
        "to_node": 12,
        "from_status": 1,
        "to_status": 1,
        "r1": 4.837701251450717,
        "x1": 4.01589734639935,
        "c1": 4.479695714355704e-07,
        "tan1": 0.0,
        "r0": 0.3,
        "x0": 0.3,
        "c0": 1e-09,
        "tan0": 0.0,
        "i_n": 89.64136036701005
      },
      {
        "id": 28,
        "from_node": 12,
        "to_node": 13,
        "from_status": 1,
        "to_status": 1,
        "r1": 1.6002730233627287,
        "x1": 2.53970321260287,
        "c1": 9.328338242269068e-07,
        "tan1": 0.0,
        "r0": 0.3,
        "x0": 0.3,
        "c0": 1e-09,
        "tan0": 0.0,
        "i_n": 117.96726747179264
      },
      {
        "id": 29,
        "from_node": 13,
        "to_node": 14,
        "from_status": 1,
        "to_status": 1,
        "r1": 2.756336230452756,
        "x1": 3.532807049334448,
        "c1": 5.474409113284237e-07,
        "tan1": 0.0,
        "r0": 0.3,
        "x0": 0.3,
        "c0": 1e-09,
        "tan0": 0.0,
        "i_n": 816.3221946584226
      }
    ],
    "sym_load": [
      {
        "id": 30,
        "node": 1,
        "status": 1,
        "type": 2,
        "p_specified": 9446.021299983637,
        "q_specified": -4246.85471579596
      },
      {
        "id": 31,
        "node": 2,
        "status": 1,
        "type": 1,
        "p_specified": -36590.630448384574,
        "q_specified": -5157.856897960678
      },
      {
        "id": 32,
        "node": 3,
        "status": 1,
        "type": 0,
        "p_specified": -93405.5170226497,
        "q_specified": 9625.994809964206
      },
      {
        "id": 33,
        "node": 4,
        "status": 1,
        "type": 0,
        "p_specified": -82035.12776088127,
        "q_specified": 5152.078439328736
      },
      {
        "id": 34,
        "node": 10,
        "status": 1,
        "type": 1,
        "p_specified": 67573.04624510315,
        "q_specified": 491.47878224165834
      },
      {
        "id": 35,
        "node": 11,
        "status": 1,
        "type": 0,
        "p_specified": 69897.19303727342,
        "q_specified": 7900.779348533506
      },
      {
        "id": 36,
        "node": 12,
        "status": 1,
        "type": 1,
        "p_specified": 15939.002149121181,
        "q_specified": -988.7378673768962
      }
    ]
  }
}